LAMMPS (15 Apr 2020)
#The input script
units           metal
boundary        p p p
dimension 3
atom_style      atomic

lattice         fcc  3.48
Lattice spacing in x,y,z = 3.48 3.48 3.48
region  copper  block  0 3.48 0 3.48 0 3.48 units box
create_box   1 copper
Created orthogonal box = (0 0 0) to (3.48 3.48 3.48)
create_atoms 1 region copper
Created 4 atoms
mass  1  63.546  # grams/mole
replicate 3 3 3
  orthogonal box = (0 0 0) to (10.44 10.44 10.44)
  108 atoms
  replicate CPU = 0.000414791 secs

pair_style morse 5
pair_coeff * * 0.3429 1.3588 2.6260 # D0 alpha r0

thermo_style   custom step temp press vol etotal
timestep       0.0005

# equilibration
velocity        all create 6000.0 4928459 rot yes dist gaussian
fix 1 all npt temp 2500.0 2500.0 200.0 iso 0.0 0.0 200.0
thermo         1000
run            200000
  update every 1 steps, delay 10 steps, check yes
Step Temp Press Volume TotEng
0         6000    -100570.1    1137.8932   -294.07282
Averages over the last 101 of 201 rows, steps 100000 to 200000:
Temp Press Volume TotEng
2495.81 416.191 1136.94 -288.614
Loop time of 12.1519 on 4 procs for 200000 steps with 108 atoms

unfix 1

#calculation
reset_timestep 0

compute        peratom all pe/atom
compute        pe all reduce sum c_peratom

fix 1 all nve
thermo          1000
dump           1 all custom 100 copper_liquid.dump id type x y z c_peratom
dump           2 all xyz 100 copper_liquid.xyz
run            260000
Step Temp Press Volume TotEng
0     2549.736    1907.5727    1137.9112   -288.45239
Averages over the last 131 of 261 rows, steps 130000 to 260000:
Temp Press Volume TotEng
2503.4 -865.45 1137.91 -288.541
Loop time of 15.0773 on 4 procs for 260000 steps with 108 atoms
